%nprocshared=8
%mem=8GB
# freq b3lyp/6-31g(2df,p)

energy: -15.614184499692 gnorm: 0.000439253721 xtb: 6.6.1 (8d0f1dd)

0 1
 C                 -0.55489600    0.49900000   -0.05026400
 H                 -0.41389900    1.17972800    0.80345700
 H                 -0.53060000    1.10426000   -0.96869600
 C                  0.59561500   -0.49695800   -0.05864700
 H                  0.60554200   -1.08253600   -0.98513900
 H                  0.48947100   -1.18397600    0.78942600
 F                  1.78641100    0.18712000    0.05778600
 O                 -1.74728300   -0.25712900    0.06273800
 H                 -2.49426100    0.34322100   -0.00755900

D 8 1 4 7 S 36 10.000000

