%nprocshared=8
%mem=8GB
# freq b3lyp/6-31g(2df,p)

energy: -15.614184499692 gnorm: 0.000439253721 xtb: 6.6.1 (8d0f1dd)

0 1
 C                 -0.70193100    0.62176400   -0.18007300
 H                 -1.15601400    1.46797900    0.36050200
 H                 -0.80228800    0.82737500   -1.25840000
 C                  0.77756600    0.56500700    0.18898500
 H                  0.90099000    0.70211300    1.27126800
 H                  1.32658900    1.36049000   -0.33052200
 F                  1.31081200   -0.65862100   -0.13288600
 O                 -1.28659400   -0.62293200    0.14312000
 H                 -2.22763600   -0.56754500   -0.04530300

D 8 1 4 7 S 36 10.000000

