%nprocshared=8
%mem=8GB
# freq b3lyp/6-31g(2df,p)

energy: -15.614184499692 gnorm: 0.000439253721 xtb: 6.6.1 (8d0f1dd)

0 1
 C                 -0.73677600    0.65923000    0.00030100
 H                 -1.07592400    1.21826600    0.88624900
 H                 -1.07657200    1.21951500   -0.88448500
 C                  0.81633200    0.59633900   -0.00037100
 H                  1.21889800    1.09962900    0.88686900
 H                  1.21880100    1.09883300   -0.88824900
 F                  1.26392500   -0.69854400    0.00028600
 O                 -1.24201200   -0.66017800   -0.00036400
 H                 -2.20176700   -0.60133900    0.00036600

D 8 1 4 7 S 36 10.000000

