%nprocshared=8
%mem=8GB
# freq b3lyp/6-31g(2df,p)

energy: -15.614184499692 gnorm: 0.000439253721 xtb: 6.6.1 (8d0f1dd)

0 1
 C                 -0.67365600    0.57535800    0.25904100
 H                 -0.64103300    0.60517500    1.35953900
 H                 -1.13327200    1.51614800   -0.08834700
 C                  0.74416500    0.52360600   -0.27131900
 H                  1.30017700    1.40899900    0.06324600
 H                  0.73245800    0.50262700   -1.36853500
 F                  1.38268900   -0.61082600    0.17304100
 O                 -1.36189600   -0.56785300   -0.20675400
 H                 -2.23042200   -0.58647900    0.20442900

D 8 1 4 7 S 36 10.000000

