%nprocshared=8
%mem=8GB
# freq b3lyp/6-31g(2df,p)

energy: -15.614184499692 gnorm: 0.000439253721 xtb: 6.6.1 (8d0f1dd)

0 1
 C                 -0.73387800    0.65693700    0.04725300
 H                 -1.02241400    1.12790600    1.00017300
 H                 -1.11544700    1.30059400   -0.76013300
 C                  0.81359500    0.59437000   -0.04914500
 H                  1.27008900    1.18584200    0.75344800
 H                  1.15274200    1.00312200   -1.00905600
 F                  1.26606300   -0.69612500    0.03736300
 O                 -1.24426500   -0.65785700   -0.03628900
 H                 -2.20371800   -0.59732300   -0.01903300

D 8 1 4 7 S 36 10.000000

