%nprocshared=8
%mem=8GB
# freq b3lyp/6-31g(2df,p)

energy: -15.614184499692 gnorm: 0.000439253721 xtb: 6.6.1 (8d0f1dd)

0 1
 C                 -0.60328300    0.47666400   -0.27702100
 H                 -0.34360500    1.35153800    0.33666700
 H                 -0.88953800    0.83691900   -1.27630200
 C                  0.64899900   -0.40353000   -0.35759900
 H                  0.99477600   -0.52654200   -1.39004800
 H                  0.40909300   -1.38776500    0.05962700
 F                  1.68238100    0.15448900    0.36750500
 O                 -1.64436800   -0.29480100    0.30169300
 H                 -2.43151200    0.25505100    0.35668500

D 8 1 4 7 S 36 10.000000

