%nprocshared=8
%mem=8GB
# freq b3lyp/6-31g(2df,p)

energy: -15.614184499692 gnorm: 0.000439253721 xtb: 6.6.1 (8d0f1dd)

0 1
 C                 -0.60344800    0.47736400    0.27594100
 H                 -0.89014100    0.83979300    1.27438600
 H                 -0.34466800    1.35147400   -0.33922500
 C                  0.64911400   -0.40146700    0.35967500
 H                  0.40915900   -1.38797000   -0.05221300
 H                  0.99517000   -0.51959700    1.39266400
 F                  1.68237200    0.15280000   -0.36885400
 O                 -1.64417100   -0.29596500   -0.30137300
 H                 -2.43149700    0.25343600   -0.35864300

D 8 1 4 7 S 36 10.000000

