%nprocshared=8
%mem=8GB
# freq b3lyp/6-31g(2df,p)

energy: -15.614184499692 gnorm: 0.000439253721 xtb: 6.6.1 (8d0f1dd)

0 1
 C                 -0.62564700    0.43789200    0.37878900
 H                 -0.40209700    0.14849700    1.41561600
 H                 -1.00055500    1.47378700    0.39018900
 C                  0.67798100    0.38111400   -0.40963100
 H                  1.12977900    1.37790400   -0.47982700
 H                  0.47397200    0.00667000   -1.41895100
 F                  1.59240900   -0.44678900    0.20939500
 O                 -1.56309700   -0.42723200   -0.24087300
 H                 -2.34200900   -0.48193200    0.32046000

D 8 1 4 7 S 36 10.000000

