%nprocshared=8
%mem=8GB
# freq b3lyp/6-31g(2df,p)

energy: -15.614184499692 gnorm: 0.000439253721 xtb: 6.6.1 (8d0f1dd)

0 1
 C                 -0.66029200    0.54507000    0.29540100
 H                 -0.56839800    0.48974700    1.39079500
 H                 -1.10982600    1.52073900    0.04393500
 C                  0.72675600    0.49664300   -0.30776700
 H                  1.27102500    1.41820300   -0.06381600
 H                  0.65505600    0.39996600   -1.39818800
 F                  1.43137500   -0.57938300    0.18405300
 O                 -1.41174600   -0.53339600   -0.22742600
 H                 -2.23504300   -0.59731300    0.26440300

D 8 1 4 7 S 36 10.000000

