%nprocshared=8
%mem=8GB
# freq b3lyp/6-31g(2df,p)

energy: -15.614184499692 gnorm: 0.000439253721 xtb: 6.6.1 (8d0f1dd)

0 1
 C                 -0.68804200    0.60023900    0.22071300
 H                 -0.72065500    0.71756800    1.31606000
 H                 -1.14895000    1.49817000   -0.22387100
 C                  0.76088700    0.54619300   -0.23182600
 H                  1.31766100    1.39115100    0.19328500
 H                  0.81384400    0.60183100   -1.32692300
 F                  1.34346300   -0.63639000    0.15610000
 O                 -1.31975000   -0.59858900   -0.17756400
 H                 -2.23214300   -0.57109500    0.12373600

D 8 1 4 7 S 36 10.000000

