%nprocshared=8
%mem=8GB
# freq b3lyp/6-31g(2df,p)

energy: -15.614184499692 gnorm: 0.000439253721 xtb: 6.6.1 (8d0f1dd)

0 1
 C                 -0.61476500    0.43930400   -0.35517500
 H                 -0.94953300    1.48794300   -0.33787000
 H                 -0.36849400    0.18104700   -1.39513300
 C                  0.66366000    0.28501400    0.46982100
 H                  0.43586200   -0.29291000    1.37225600
 H                  1.06714300    1.26162200    0.76151600
 F                  1.64016500   -0.36817400   -0.25522900
 O                 -1.60630300   -0.41310300    0.19607800
 H                 -2.38941200   -0.36521500   -0.36020200

D 8 1 4 7 S 36 10.000000

