%nprocshared=8
%mem=8GB
# freq b3lyp/6-31g(2df,p)

energy: -15.614184499692 gnorm: 0.000439253721 xtb: 6.6.1 (8d0f1dd)

0 1
 C                 -0.71497400    0.63773200    0.13813200
 H                 -0.88107700    0.93025400    1.18786300
 H                 -1.15368300    1.42594000   -0.49398700
 C                  0.79267600    0.57870400   -0.14446200
 H                  1.32265700    1.31744200    0.46941600
 H                  0.98864900    0.80153600   -1.20139000
 F                  1.28832100   -0.67572700    0.10511600
 O                 -1.26489700   -0.63969000   -0.10822500
 H                 -2.21847300   -0.57472200   -0.00417000

D 8 1 4 7 S 36 10.000000

