%nprocshared=8
%mem=8GB
# freq b3lyp/6-31g(2df,p)

energy: -15.614184499692 gnorm: 0.000439253721 xtb: 6.6.1 (8d0f1dd)

0 1
 C                 -0.55359900    0.49951100    0.00041600
 H                 -0.46754600    1.14284800    0.88943400
 H                 -0.46666400    1.14345500   -0.88808200
 C                  0.59427900   -0.49979500    0.00044300
 H                  0.54324500   -1.13733300   -0.88996100
 H                  0.54416800   -1.13660500    0.89141500
 F                  1.78858800    0.18802900   -0.00045500
 O                 -1.75011800   -0.25682900   -0.00045400
 H                 -2.49363700    0.35170600   -0.00023100

D 8 1 4 7 S 36 10.000000

