%nprocshared=8
%mem=8GB
# freq b3lyp/6-31g(2df,p)

energy: -15.614184499692 gnorm: 0.000439253721 xtb: 6.6.1 (8d0f1dd)

0 1
 C                 -0.55486000    0.49894500    0.05108800
 H                 -0.53147400    1.10347600    0.96996900
 H                 -0.41301200    1.18022300   -0.80205200
 C                  0.59559900   -0.49703600    0.05953500
 H                  0.48877900   -1.18470700   -0.78790700
 H                  0.60660000   -1.08177200    0.98650600
 F                  1.78633800    0.18717900   -0.05868700
 O                 -1.74727100   -0.25706900   -0.06367600
 H                 -2.49419200    0.34327200    0.00732900

D 8 1 4 7 S 36 10.000000

