%nprocshared=8
%mem=8GB
# freq b3lyp/6-31g(2df,p)

energy: -15.614184499692 gnorm: 0.000439253721 xtb: 6.6.1 (8d0f1dd)

0 1
 C                 -0.64811500    0.51075200   -0.32831000
 H                 -1.08015300    1.51313100   -0.16929700
 H                 -0.50464700    0.37377600   -1.41028200
 C                  0.70996000    0.46546900    0.34151700
 H                  0.58604500    0.29029200    1.41686400
 H                  1.23276300    1.41850800    0.18975300
 F                  1.48459300   -0.54243800   -0.19148300
 O                 -1.46363100   -0.49817300    0.23913500
 H                 -2.25737000   -0.58571200   -0.29601500

D 8 1 4 7 S 36 10.000000

