%nprocshared=8
%mem=8GB
# freq b3lyp/6-31g(2df,p)

energy: -15.614184499692 gnorm: 0.000439253721 xtb: 6.6.1 (8d0f1dd)

0 1
 C                 -0.56036900    0.49693600   -0.10209400
 H                 -0.37270900    1.21684000    0.70958400
 H                 -0.60185600    1.05911700   -1.04630300
 C                  0.60077400   -0.48997100   -0.11695700
 H                  0.67597500   -1.01827200   -1.07406400
 H                  0.44486500   -1.22676000    0.68028000
 F                  1.77938100    0.18572200    0.11688500
 O                 -1.73838000   -0.25833000    0.12254800
 H                 -2.49609500    0.32243300    0.01245700

D 8 1 4 7 S 36 10.000000

