%nprocshared=8
%mem=8GB
# freq b3lyp/6-31g(2df,p)

energy: -15.614184499692 gnorm: 0.000439253721 xtb: 6.6.1 (8d0f1dd)

0 1
 C                 -0.57940700    0.48421100   -0.20605100
 H                 -0.33179800    1.29286400    0.49844400
 H                 -0.75038000    0.93671500   -1.19316800
 C                  0.62123500   -0.46477700   -0.22989100
 H                  0.83448000   -0.84700100   -1.23422600
 H                  0.39695500   -1.30981100    0.43162800
 F                  1.74524800    0.18294600    0.23808800
 O                 -1.70285500   -0.26553500    0.22779500
 H                 -2.48461500    0.28840300    0.14781500

D 8 1 4 7 S 36 10.000000

