%nprocshared=8
%mem=8GB
# freq b3lyp/6-31g(2df,p)

energy: -15.614184499692 gnorm: 0.000439253721 xtb: 6.6.1 (8d0f1dd)

0 1
 C                 -0.56861900    0.49214000   -0.15475700
 H                 -0.34518500    1.25415400    0.60764200
 H                 -0.67607600    1.00396600   -1.12177900
 C                  0.60903800   -0.47963300   -0.17413500
 H                  0.75340000   -0.94199500   -1.15678800
 H                  0.41336000   -1.26758600    0.56287700
 F                  1.76565600    0.18463800    0.17707500
 O                 -1.72314400   -0.26101800    0.17756900
 H                 -2.49376400    0.30282100    0.06717400

D 8 1 4 7 S 36 10.000000

