%nprocshared=8
%mem=8GB
# freq b3lyp/6-31g(2df,p)

energy: -15.614184499692 gnorm: 0.000439253721 xtb: 6.6.1 (8d0f1dd)

0 1
 C                 -0.57975500    0.48412300    0.20678100
 H                 -0.75109200    0.93592000    1.19429000
 H                 -0.33143600    1.29321100   -0.49682300
 C                  0.62107000   -0.46460800    0.23087800
 H                  0.39759500   -1.31086800   -0.42927100
 H                  0.83503700   -0.84477700    1.23575600
 F                  1.74507200    0.18289600   -0.23907900
 O                 -1.70247700   -0.26570100   -0.22853600
 H                 -2.48383100    0.28896300   -0.14990600

D 8 1 4 7 S 36 10.000000

