%nprocshared=8
%mem=8GB
# freq b3lyp/6-31g(2df,p)

energy: -15.614184499692 gnorm: 0.000439253721 xtb: 6.6.1 (8d0f1dd)

0 1
 C                 -0.59158200    0.47564300    0.25275800
 H                 -0.82335200    0.86507800    1.25469000
 H                 -0.33206600    1.32957800   -0.39055500
 C                  0.63465600   -0.44332300    0.28784600
 H                  0.39585200   -1.35208300   -0.27617900
 H                  0.91645600   -0.72105100    1.30945200
 F                  1.71745400    0.17733800   -0.30112500
 O                 -1.67611300   -0.27366000   -0.27310800
 H                 -2.46351500    0.27780100   -0.24604200

D 8 1 4 7 S 36 10.000000

