%nprocshared=8
%mem=8GB
# freq b3lyp/6-31g(2df,p)

energy: -15.614184499692 gnorm: 0.000439253721 xtb: 6.6.1 (8d0f1dd)

0 1
 C                 -0.63622500    0.47269900    0.35793600
 H                 -0.44775300    0.25331600    1.41880200
 H                 -1.04298100    1.49522600    0.29160500
 C                  0.69359900    0.42798200   -0.37490900
 H                  1.18557300    1.40742900   -0.32494100
 H                  0.52472800    0.16310800   -1.42497800
 F                  1.53995000   -0.49842900    0.19837400
 O                 -1.51589200   -0.46129800   -0.24435700
 H                 -2.29622200   -0.54692200    0.31083800

D 8 1 4 7 S 36 10.000000

