%nprocshared=8
%mem=8GB
# freq b3lyp/6-31g(2df,p)

energy: -15.614184499692 gnorm: 0.000439253721 xtb: 6.6.1 (8d0f1dd)

0 1
 C                 -0.59136400    0.47532600   -0.25242400
 H                 -0.33180700    1.32924200    0.39082000
 H                 -0.82232000    0.86479000   -1.25452800
 C                  0.63449600   -0.44408400   -0.28663500
 H                  0.91576400   -0.72454000   -1.30762700
 H                  0.39608800   -1.35144400    0.27979500
 F                  1.71795200    0.17788800    0.30003900
 O                 -1.67673000   -0.27306400    0.27274500
 H                 -2.46424800    0.27802000    0.24358400

D 8 1 4 7 S 36 10.000000

