%nprocshared=8
%mem=8GB
# freq b3lyp/6-31g(2df,p)

energy: -15.614184499692 gnorm: 0.000439253721 xtb: 6.6.1 (8d0f1dd)

0 1
 C                 -0.73393900    0.65686600   -0.04651900
 H                 -1.11471800    1.29966800    0.76203200
 H                 -1.02390100    1.12941800   -0.99831300
 C                  0.81358100    0.59448300    0.04830300
 H                  1.15340700    1.00483400    1.00728400
 H                  1.26941800    1.18530300   -0.75521600
 F                  1.26622900   -0.69621600   -0.03683400
 O                 -1.24429300   -0.65802000    0.03588700
 H                 -2.20376900   -0.59722500    0.01791900

D 8 1 4 7 S 36 10.000000

