%nprocshared=8
%mem=8GB
# freq b3lyp/6-31g(2df,p)

energy: -15.614184499692 gnorm: 0.000439253721 xtb: 6.6.1 (8d0f1dd)

0 1
 C                 -0.63678300    0.47325000   -0.35720500
 H                 -1.04337000    1.49566300   -0.28813600
 H                 -0.45010300    0.25609500   -1.41885400
 C                  0.69381000    0.42824400    0.37410800
 H                  0.52530800    0.16424400    1.42449900
 H                  1.18539600    1.40783000    0.32337500
 F                  1.54015600   -0.49876600   -0.19822100
 O                 -1.51562700   -0.46198800    0.24410800
 H                 -2.29578100   -0.54800100   -0.31118000

D 8 1 4 7 S 36 10.000000

