%nprocshared=8
%mem=8GB
# freq b3lyp/6-31g(2df,p)

energy: -15.614184499692 gnorm: 0.000439253721 xtb: 6.6.1 (8d0f1dd)

0 1
 C                 -0.56895000    0.49228100    0.15533600
 H                 -0.67715100    1.00377800    1.12242600
 H                 -0.34508000    1.25488800   -0.60639800
 C                  0.60926700   -0.47898700    0.17510300
 H                  0.41325300   -1.26864600   -0.56011000
 H                  0.75329300   -0.93975700    1.15860000
 F                  1.76572400    0.18425700   -0.17801600
 O                 -1.72299500   -0.26133200   -0.17832600
 H                 -2.49377100    0.30231100   -0.06839600

D 8 1 4 7 S 36 10.000000

