9
U0: -43.975695092104935; coord: (-9.76, -2.70)
F 0.0888348245 0.0312493295 -0.1840026067
C -0.0781472094 1.3133212389 -0.0496204395
N -1.2252184725 1.751946593 0.2638065075
O -1.3261285213 3.1546398556 0.3906212631
C -0.2695893 3.986922043 0.1918710259
O -0.3934273177 5.1650229622 0.3079293058
C 1.0721606723 3.353291018 -0.1835677935
O 2.067973247 3.956616396 -0.3841271447
O 1.0692161171 1.9651241139 -0.2838440977
